*INCLUDE, INPUT=meshsolid_multi.inp
*NSET, NSET=FIX
	1,	2,	3,	4,	5,	6,	7,	8,	9,	10,	
	11,	12,	13,	14,	15,	16,	17,	18,	19,	20,	
	21,	22,	23,	24,	25,	26,	27,	28,	29,	30,	
	31,	32,	34,	38,	40,	46,	48,	50,	53,	55,	
	57,	58,	63,	68,	70,	74,	76,	77,	78,	79,	
	80,	81,	82,	83,	84,	85,	86,	87,	88,	89,	
	90,	91,	92,	93,	193,	194,	195,	196,	197,	198,	
	199,	200,	201,	202,	203,	204,	205,	206,	207,	208,	
	209,	210,	211,	212,	213,	214,	215,	216,	217,	218,	
	219,	220,	221,	222,	223,	224,	225,	226,	227,	228,	
	229,	230,	231,	232,	233,	234,	235,	236,	237,	238,	
	239,	245,	249,	252,	253,	254,	255,	256,	262,	268,	
	269,	272,	273,	278,	279,	282,	285,	288,	321,	322,	
	323,	324,	325,	326,	327,	328,	329,	330,	331,	332,	
	333,	334,	335,	336,	337,	338,	339,	340,	341,	342,	
	343,	344,	345,	346,	347,	348,	349,	350,	351,	352,	
	353,	354,	355,	356,	357,	358,	359,	367,	368,	369,	
	374,	381,	386,	387,	391,	438,	439,	440,	441,	442,	
	443,	444,	445,	446,	447,	448,	449,	450,	451,	452,	
	453,	454,	455,	456,	457,	458,	459,	460,	461,	462,	
** ... 6 like lines cut
*BOUNDARY 
FIX, 1
*BOUNDARY 
FIX, 2
*BOUNDARY 
FIX, 3
*NSET, NSET=Nall, GENERATE
1,5880
*MATERIAL, NAME=PDMS
*ELASTIC 
2820.0,	0.421
*SOLID SECTION, ELSET=Volume0, MATERIAL=PDMS
*MATERIAL, NAME=GLASS
*ELASTIC 
50000000000.0,	0.18
*SOLID SECTION, ELSET=Volume1, MATERIAL=GLASS
*NSET, NSET=LOAD2
2
*NSET, NSET=LOAD4
4
*NSET, NSET=LOAD5
5
*NSET, NSET=LOAD7
7
*NSET, NSET=LOAD8
8
*NSET, NSET=LOAD9
9
*NSET, NSET=LOAD10
10
*NSET, NSET=LOAD11
11
*NSET, NSET=LOAD12
12
*NSET, NSET=LOAD13
13
*NSET, NSET=LOAD14
14
*NSET, NSET=LOAD15
15
*NSET, NSET=LOAD16
16
*NSET, NSET=LOAD17
17
*NSET, NSET=LOAD18
18
*NSET, NSET=LOAD19
19
*NSET, NSET=LOAD20
20
*NSET, NSET=LOAD21
21
*NSET, NSET=LOAD22
22
*NSET, NSET=LOAD23
23
** ... 1102 like lines cut
**
*STEP
*STATIC
*CLOAD
LOAD2, 3, -0.874945059829
LOAD4, 3, -0.620799602322
LOAD5, 3, -0.362681774209
LOAD7, 3, -0.301415933586
LOAD8, 3, -0.404421009341
LOAD9, 3, -0.814519497476
LOAD10, 3, -0.244478134369
LOAD11, 3, -0.301018745637
LOAD12, 3, -0.310832155796
LOAD13, 3, -0.795315155079
LOAD14, 3, -0.645563396843
LOAD15, 3, -0.25977541
LOAD16, 3, -0.258238351392
LOAD17, 3, -0.631570370439
LOAD18, 3, -0.636816309469
LOAD19, 3, -0.580663918623
LOAD20, 3, -0.284041573446
LOAD21, 3, -0.259777509058
LOAD22, 3, -0.282874943276
LOAD23, 3, -0.572888877535
** ... 551 like lines cut
*NODE PRINT, NSET=Nall
U
*EL PRINT, ELSET=Volume0
S
*NODE FILE
U
*EL FILE
S
*END STEP
