*INCLUDE, INPUT=meshsolid_multi.inp
*NSET, NSET=FIX
	1,	2,	3,	4,	5,	6,	7,	8,	9,	10,	
	11,	12,	13,	14,	15,	16,	17,	18,	19,	20,	
	21,	22,	23,	24,	25,	26,	27,	28,	29,	30,	
	32,	34,	35,	39,	41,	42,	45,	46,	48,	50,	
	51,	58,	60,	61,	62,	68,	73,	74,	75,	76,	
	77,	78,	79,	80,	81,	82,	83,	84,	85,	86,	
	87,	88,	89,	90,	193,	194,	195,	196,	197,	198,	
	199,	200,	201,	202,	203,	204,	205,	206,	207,	208,	
	209,	210,	211,	212,	213,	214,	215,	216,	217,	218,	
	219,	220,	221,	222,	223,	224,	225,	226,	227,	228,	
	229,	230,	231,	232,	233,	234,	235,	236,	237,	238,	
	239,	240,	247,	250,	253,	254,	255,	256,	257,	263,	
	269,	270,	273,	274,	279,	282,	285,	288,	321,	322,	
	323,	324,	325,	326,	327,	328,	329,	330,	331,	332,	
	333,	334,	335,	336,	337,	338,	339,	340,	341,	342,	
	343,	344,	345,	346,	347,	348,	349,	350,	351,	352,	
	353,	354,	355,	356,	357,	358,	359,	362,	368,	369,	
	370,	376,	383,	391,	440,	441,	442,	443,	444,	445,	
	446,	447,	448,	449,	450,	451,	452,	453,	454,	455,	
	456,	457,	458,	459,	460,	461,	462,	463,	464,	465,	
** ... 6 like lines cut
*BOUNDARY 
FIX, 1
*BOUNDARY 
FIX, 2
*BOUNDARY 
FIX, 3
*NSET, NSET=Nall, GENERATE
1,14093
*MATERIAL, NAME=PDMS
*ELASTIC 
2820.0,	0.421
*SOLID SECTION, ELSET=Volume0, MATERIAL=PDMS
*MATERIAL, NAME=GLASS
*ELASTIC 
50000000000.0,	0.18
*SOLID SECTION, ELSET=Volume1, MATERIAL=GLASS
*NSET, NSET=LOAD2
2
*NSET, NSET=LOAD6
6
*NSET, NSET=LOAD8
8
*NSET, NSET=LOAD9
9
*NSET, NSET=LOAD10
10
*NSET, NSET=LOAD11
11
*NSET, NSET=LOAD12
12
*NSET, NSET=LOAD13
13
*NSET, NSET=LOAD14
14
*NSET, NSET=LOAD15
15
*NSET, NSET=LOAD16
16
*NSET, NSET=LOAD17
17
*NSET, NSET=LOAD18
18
*NSET, NSET=LOAD19
19
*NSET, NSET=LOAD20
20
*NSET, NSET=LOAD21
21
*NSET, NSET=LOAD22
22
*NSET, NSET=LOAD23
23
*NSET, NSET=LOAD24
24
*NSET, NSET=LOAD26
26
** ... 1464 like lines cut
**
*STEP
*STATIC
*CLOAD
LOAD2, 3, -0.691616698174
LOAD6, 3, -0.259759476025
LOAD8, 3, -0.726161317622
LOAD9, 3, -0.444181393866
LOAD10, 3, -0.336161965237
LOAD11, 3, -0.282840047321
LOAD12, 3, -0.580710032125
LOAD13, 3, -0.268009413248
LOAD14, 3, -0.604695020142
LOAD15, 3, -0.623325554339
LOAD16, 3, -0.296597163782
LOAD17, 3, -0.282874943276
LOAD18, 3, -0.632512541418
LOAD19, 3, -0.353315910146
LOAD20, 3, -0.306885446976
LOAD21, 3, -0.292452505926
LOAD22, 3, -0.359329819863
LOAD23, 3, -0.289419193138
LOAD24, 3, -0.286142128914
LOAD26, 3, -0.313248025285
** ... 732 like lines cut
*NODE PRINT, NSET=Nall
U
*EL PRINT, ELSET=Volume0
S
*NODE FILE
U
*EL FILE
S
*END STEP
